pragma openseespy
model  -ndm 3 -ndf 6
nDMaterial ElasticIsotropic 1 29000.0 0.2946428571428572 
section ShearFiber 1 -GJ 0
fiber  -area 0.0024582639885040777 -y -0.14561512300458365 -z -6.3829750736447375 -warp {{-0.9688128476232064 -6.786934454042567 -0.04748607401877503} {0 0.0 0}} -material 1 -section 1
fiber  -area 0.001968071740911675 -y 0.0858973084620515 -z -6.445011251646858 -warp {{0.5691715491462072 -6.63878169872745 -0.02527522541799355} {0 0.0 0}} -material 1 -section 1
fiber  -area 0.0026295055799975256 -y 0.2513534165830714 -z 6.449067492681132 -warp {{-1.6787270648523116 6.748091646753959 -0.21094775277555372} {0 0.0 0}} -material 1 -section 1
fiber  -area 0.002796604853338925 -y 0.1014594313673518 -z 6.425207602196014 -warp {{-0.6731775102372725 6.6783731887794575 0.022672204285079205} {0 0.0 0}} -material 1 -section 1
fiber  -area 0.0022616072114781324 -y 0.1304274710890395 -z 6.220068233014909 -warp {{-0.8284796255572076 6.237688704920369 0.3756999411098841} {0 0.0 0}} -material 1 -section 1
fiber  -area 0.002487779349693777 -y -0.007698820096156869 -z 6.486116300436176 -warp {{0.051096703304494895 6.608789679217263 -0.006552612113648284} {0 0.0 0}} -material 1 -section 1
fiber  -area 0.002460525168736268 -y 0.006084256112897629 -z 6.3298594819992475 -warp {{-0.039783655911187786 6.519855409462935 -0.0004950376378961889} {0 0.0 0}} -material 1 -section 1
fiber  -area 0.0031467887616343357 -y -0.039403531190762286 -z -6.423441977149788 -warp {{-0.2606883599789936 -6.620295706243519 0.004775549540130149} {0 0.0 0}} -material 1 -section 1
fiber  -area 0.0017380861797066988 -y -0.08557062785976706 -z -0.13913505059366446 -warp {{-0.011877430759104376 -0.15014173930104813 -0.06360844248600132} {0 0.0 0}} -material 1 -section 1
fiber  -area 0.0015654750619104728 -y -0.12265660393775457 -z 0.0831423636570512 -warp {{0.010752143970294744 0.09076944080460092 -0.09014781582018311} {0 0.0 0}} -material 1 -section 1
fiber  -area 0.0023834684375634483 -y 0.2593506267351425 -z -6.453786116989534 -warp {{1.7323827949457378 -6.7810370951201095 -0.17351269995236504} {0 0.0 0}} -material 1 -section 1
fiber  -area 0.0019355233000958175 -y 0.13663742324540615 -z -6.290027468036063 -warp {{0.8932077714445441 -6.7068544689087775 0.4189533868737846} {0 0.0 0}} -material 1 -section 1
fiber  -area 0.0014792241013295256 -y -2.0158380814716805 -z 6.653582883495797 -warp {{13.192050678408103 6.57007876855084 2.0086840564017807} {0 0.0 0}} -material 1 -section 1
fiber  -area 0.0023669367796510807 -y -0.141628709058663 -z 6.406422074968462 -warp {{0.942347817440711 6.742995280421899 0.02891537778416107} {0 0.0 0}} -material 1 -section 1
fiber  -area 0.0017539659194493545 -y 0.10229771528391646 -z 6.487791422499789 -warp {{-0.6772376412493415 6.645742892930351 -0.05197090489407876} {0 0.0 0}} -material 1 -section 1
fiber  -area 0.0025366865046284877 -y -0.28659657212960704 -z -6.551311061739646 -warp {{-1.8928968239647226 -6.620894940641508 0.2222515233435746} {0 0.0 0}} -material 1 -section 1
fiber  -area 0.0019815514143507193 -y -0.08578400989106238 -z 6.351877593794479 -warp {{0.5658468683295131 6.602097062114348 -0.08811794734440703} {0 0.0 0}} -material 1 -section 1
fiber  -area 0.0014530087929486317 -y 0.015114274840427261 -z 6.620543455969738 -warp {{-0.09834583824907739 6.5086382561474245 -0.005888751647520736} {0 0.0 0}} -material 1 -section 1
fiber  -area 0.0015887492312902244 -y 0.028849544882921505 -z 6.350951673163934 -warp {{-0.189402837780244 6.6160215372062625 0.0411056797891282} {0 0.0 0}} -material 1 -section 1
fiber  -area 0.0017167749137016785 -y -0.0214970341591736 -z 6.343442172962598 -warp {{0.14097283300998242 6.59404767651328 -0.015319052584232587} {0 0.0 0}} -material 1 -section 1
# ... 6343 like lines cut
geomTransf Linear 1 0 1 0 
node 0 0.0 0 0 
node 1 51.75 0 0 
node 2 103.5 0 0 
node 3 155.25 0 0 
node 4 207.0 0 0 
element ForceFrame 1 0 1 -section 1 -transform 1 -shear 0
element ForceFrame 2 1 2 -section 1 -transform 1 -shear 0
element ForceFrame 3 2 3 -section 1 -transform 1 -shear 0
element ForceFrame 4 3 4 -section 1 -transform 1 -shear 0
fix 0 1 1 1 1 1 1 
getNodeTags  
pattern Plain 1 Linear {load 4 0 10 0 0 0 -1000 ;
}
integrator LoadControl 1 
analysis Static 
test Residual 1e-08 3 
analyze 1 
getTime  
nodeDisp 0 
nodeDisp 1 
nodeDisp 2 
nodeDisp 3 
nodeDisp 4 
nodeRotation 0 
nodeRotation 1 
nodeRotation 2 
nodeRotation 3 
nodeRotation 4 
analyze 1 
getTime  
nodeDisp 0 
nodeDisp 1 
nodeDisp 2 
nodeDisp 3 
nodeDisp 4 
nodeRotation 0 
nodeRotation 1 
nodeRotation 2 
nodeRotation 3 
nodeRotation 4 
analyze 1 
getTime  
nodeDisp 0 
nodeDisp 1 
nodeDisp 2 
nodeDisp 3 
nodeDisp 4 
nodeRotation 0 
nodeRotation 1 
nodeRotation 2 
nodeRotation 3 
nodeRotation 4 
analyze 1 
getTime  
nodeDisp 0 
nodeDisp 1 
nodeDisp 2 
nodeDisp 3 
nodeDisp 4 
nodeRotation 0 
nodeRotation 1 
nodeRotation 2 
nodeRotation 3 
nodeRotation 4 
analyze 1 
getTime  
nodeDisp 0 
nodeDisp 1 
nodeDisp 2 
nodeDisp 3 
nodeDisp 4 
nodeRotation 0 
nodeRotation 1 
nodeRotation 2 
nodeRotation 3 
nodeRotation 4 
analyze 1 
getTime  
nodeDisp 0 
nodeDisp 1 
nodeDisp 2 
nodeDisp 3 
nodeDisp 4 
nodeRotation 0 
nodeRotation 1 
nodeRotation 2 
nodeRotation 3 
nodeRotation 4 
analyze 1 
getTime  
nodeDisp 0 
nodeDisp 1 
nodeDisp 2 
nodeDisp 3 
nodeDisp 4 
nodeRotation 0 
nodeRotation 1 
nodeRotation 2 
nodeRotation 3 
nodeRotation 4 
analyze 1 
getTime  
nodeDisp 0 
nodeDisp 1 
nodeDisp 2 
nodeDisp 3 
nodeDisp 4 
nodeRotation 0 
nodeRotation 1 
nodeRotation 2 
nodeRotation 3 
nodeRotation 4 
analyze 1 
getTime  
nodeDisp 0 
nodeDisp 1 
nodeDisp 2 
nodeDisp 3 
nodeDisp 4 
nodeRotation 0 
nodeRotation 1 
nodeRotation 2 
nodeRotation 3 
nodeRotation 4 
analyze 1 
getTime  
nodeDisp 0 
nodeDisp 1 
nodeDisp 2 
nodeDisp 3 
nodeDisp 4 
nodeRotation 0 
nodeRotation 1 
nodeRotation 2 
nodeRotation 3 
nodeRotation 4 
analyze 1 
getTime  
nodeDisp 0 
nodeDisp 1 
nodeDisp 2 
nodeDisp 3 
nodeDisp 4 
nodeRotation 0 
nodeRotation 1 
nodeRotation 2 
nodeRotation 3 
nodeRotation 4 
analyze 1 
getTime  
nodeDisp 0 
nodeDisp 1 
nodeDisp 2 
nodeDisp 3 
nodeDisp 4 
nodeRotation 0 
nodeRotation 1 
nodeRotation 2 
nodeRotation 3 
nodeRotation 4 
analyze 1 
getTime  
nodeDisp 0 
nodeDisp 1 
nodeDisp 2 
nodeDisp 3 
nodeDisp 4 
nodeRotation 0 
nodeRotation 1 
nodeRotation 2 
nodeRotation 3 
nodeRotation 4 
analyze 1 
getTime  
nodeDisp 0 
nodeDisp 1 
nodeDisp 2 
nodeDisp 3 
nodeDisp 4 
nodeRotation 0 
nodeRotation 1 
nodeRotation 2 
nodeRotation 3 
nodeRotation 4 
analyze 1 
getTime  
nodeDisp 0 
nodeDisp 1 
nodeDisp 2 
nodeDisp 3 
nodeDisp 4 
nodeRotation 0 
nodeRotation 1 
nodeRotation 2 
nodeRotation 3 
nodeRotation 4 
analyze 1 
getTime  
nodeDisp 0 
nodeDisp 1 
nodeDisp 2 
nodeDisp 3 
nodeDisp 4 
nodeRotation 0 
nodeRotation 1 
nodeRotation 2 
nodeRotation 3 
nodeRotation 4 
analyze 1 
getTime  
nodeDisp 0 
nodeDisp 1 
nodeDisp 2 
nodeDisp 3 
nodeDisp 4 
nodeRotation 0 
nodeRotation 1 
nodeRotation 2 
nodeRotation 3 
nodeRotation 4 
analyze 1 
getTime  
nodeDisp 0 
nodeDisp 1 
nodeDisp 2 
nodeDisp 3 
nodeDisp 4 
nodeRotation 0 
nodeRotation 1 
nodeRotation 2 
nodeRotation 3 
nodeRotation 4 
analyze 1 
getTime  
nodeDisp 0 
nodeDisp 1 
nodeDisp 2 
nodeDisp 3 
nodeDisp 4 
nodeRotation 0 
nodeRotation 1 
nodeRotation 2 
nodeRotation 3 
nodeRotation 4 
analyze 1 
getTime  
nodeDisp 0 
nodeDisp 1 
nodeDisp 2 
nodeDisp 3 
nodeDisp 4 
nodeRotation 0 
nodeRotation 1 
nodeRotation 2 
nodeRotation 3 
nodeRotation 4 
analyze 1 
getTime  
nodeDisp 0 
nodeDisp 1 
nodeDisp 2 
nodeDisp 3 
nodeDisp 4 
nodeRotation 0 
nodeRotation 1 
nodeRotation 2 
nodeRotation 3 
nodeRotation 4 
analyze 1 
getTime  
nodeDisp 0 
nodeDisp 1 
nodeDisp 2 
nodeDisp 3 
nodeDisp 4 
nodeRotation 0 
nodeRotation 1 
nodeRotation 2 
nodeRotation 3 
nodeRotation 4 
analyze 1 
getTime  
nodeDisp 0 
nodeDisp 1 
nodeDisp 2 
nodeDisp 3 
nodeDisp 4 
nodeRotation 0 
nodeRotation 1 
nodeRotation 2 
nodeRotation 3 
nodeRotation 4 
analyze 1 
getTime  
nodeDisp 0 
nodeDisp 1 
nodeDisp 2 
nodeDisp 3 
nodeDisp 4 
nodeRotation 0 
nodeRotation 1 
nodeRotation 2 
nodeRotation 3 
nodeRotation 4 
analyze 1 
getTime  
nodeDisp 0 
nodeDisp 1 
nodeDisp 2 
nodeDisp 3 
nodeDisp 4 
nodeRotation 0 
nodeRotation 1 
nodeRotation 2 
nodeRotation 3 
nodeRotation 4 
analyze 1 
getTime  
nodeDisp 0 
nodeDisp 1 
nodeDisp 2 
nodeDisp 3 
nodeDisp 4 
nodeRotation 0 
nodeRotation 1 
nodeRotation 2 
nodeRotation 3 
nodeRotation 4 
analyze 1 
getTime  
nodeDisp 0 
nodeDisp 1 
nodeDisp 2 
nodeDisp 3 
nodeDisp 4 
nodeRotation 0 
nodeRotation 1 
nodeRotation 2 
nodeRotation 3 
nodeRotation 4 
analyze 1 
getTime  
nodeDisp 0 
nodeDisp 1 
nodeDisp 2 
nodeDisp 3 
nodeDisp 4 
nodeRotation 0 
nodeRotation 1 
nodeRotation 2 
nodeRotation 3 
nodeRotation 4 
analyze 1 
getTime  
nodeDisp 0 
nodeDisp 1 
nodeDisp 2 
nodeDisp 3 
nodeDisp 4 
nodeRotation 0 
nodeRotation 1 
nodeRotation 2 
nodeRotation 3 
nodeRotation 4 
analyze 1 
getTime  
nodeDisp 0 
nodeDisp 1 
nodeDisp 2 
nodeDisp 3 
nodeDisp 4 
nodeRotation 0 
nodeRotation 1 
nodeRotation 2 
nodeRotation 3 
nodeRotation 4 
analyze 1 
getTime  
nodeDisp 0 
nodeDisp 1 
nodeDisp 2 
nodeDisp 3 
nodeDisp 4 
nodeRotation 0 
nodeRotation 1 
nodeRotation 2 
nodeRotation 3 
nodeRotation 4 
analyze 1 
getTime  
nodeDisp 0 
nodeDisp 1 
nodeDisp 2 
nodeDisp 3 
nodeDisp 4 
nodeRotation 0 
nodeRotation 1 
nodeRotation 2 
nodeRotation 3 
nodeRotation 4 
analyze 1 
getTime  
nodeDisp 0 
nodeDisp 1 
nodeDisp 2 
nodeDisp 3 
nodeDisp 4 
nodeRotation 0 
nodeRotation 1 
nodeRotation 2 
nodeRotation 3 
nodeRotation 4 
analyze 1 
getTime  
nodeDisp 0 
nodeDisp 1 
nodeDisp 2 
nodeDisp 3 
nodeDisp 4 
nodeRotation 0 
nodeRotation 1 
nodeRotation 2 
nodeRotation 3 
nodeRotation 4 
analyze 1 
getTime  
nodeDisp 0 
nodeDisp 1 
nodeDisp 2 
nodeDisp 3 
nodeDisp 4 
nodeRotation 0 
nodeRotation 1 
nodeRotation 2 
nodeRotation 3 
nodeRotation 4 
analyze 1 
getTime  
nodeDisp 0 
nodeDisp 1 
nodeDisp 2 
nodeDisp 3 
nodeDisp 4 
nodeRotation 0 
nodeRotation 1 
nodeRotation 2 
nodeRotation 3 
nodeRotation 4 
analyze 1 
getTime  
nodeDisp 0 
nodeDisp 1 
nodeDisp 2 
nodeDisp 3 
nodeDisp 4 
nodeRotation 0 
nodeRotation 1 
nodeRotation 2 
nodeRotation 3 
nodeRotation 4 
analyze 1 
getTime  
nodeDisp 0 
nodeDisp 1 
nodeDisp 2 
nodeDisp 3 
nodeDisp 4 
nodeRotation 0 
nodeRotation 1 
nodeRotation 2 
nodeRotation 3 
nodeRotation 4 
analyze 1 
getTime  
nodeDisp 0 
nodeDisp 1 
nodeDisp 2 
nodeDisp 3 
nodeDisp 4 
nodeRotation 0 
nodeRotation 1 
nodeRotation 2 
nodeRotation 3 
nodeRotation 4 
analyze 1 
getTime  
nodeDisp 0 
nodeDisp 1 
nodeDisp 2 
nodeDisp 3 
nodeDisp 4 
nodeRotation 0 
nodeRotation 1 
nodeRotation 2 
nodeRotation 3 
nodeRotation 4 
analyze 1 
getTime  
nodeDisp 0 
nodeDisp 1 
nodeDisp 2 
nodeDisp 3 
nodeDisp 4 
nodeRotation 0 
nodeRotation 1 
nodeRotation 2 
nodeRotation 3 
nodeRotation 4 
analyze 1 
getTime  
nodeDisp 0 
nodeDisp 1 
nodeDisp 2 
nodeDisp 3 
nodeDisp 4 
nodeRotation 0 
nodeRotation 1 
nodeRotation 2 
nodeRotation 3 
nodeRotation 4 
analyze 1 
getTime  
nodeDisp 0 
nodeDisp 1 
nodeDisp 2 
nodeDisp 3 
nodeDisp 4 
nodeRotation 0 
nodeRotation 1 
nodeRotation 2 
nodeRotation 3 
nodeRotation 4 
analyze 1 
getTime  
nodeDisp 0 
nodeDisp 1 
nodeDisp 2 
nodeDisp 3 
nodeDisp 4 
nodeRotation 0 
nodeRotation 1 
nodeRotation 2 
nodeRotation 3 
nodeRotation 4 
analyze 1 
getTime  
nodeDisp 0 
nodeDisp 1 
nodeDisp 2 
nodeDisp 3 
nodeDisp 4 
nodeRotation 0 
nodeRotation 1 
nodeRotation 2 
nodeRotation 3 
nodeRotation 4 
analyze 1 
getTime  
nodeDisp 0 
nodeDisp 1 
nodeDisp 2 
nodeDisp 3 
nodeDisp 4 
nodeRotation 0 
nodeRotation 1 
nodeRotation 2 
nodeRotation 3 
nodeRotation 4 
analyze 1 
getTime  
nodeDisp 0 
nodeDisp 1 
nodeDisp 2 
nodeDisp 3 
nodeDisp 4 
nodeRotation 0 
nodeRotation 1 
nodeRotation 2 
nodeRotation 3 
nodeRotation 4 
analyze 1 
getTime  
nodeDisp 0 
nodeDisp 1 
nodeDisp 2 
nodeDisp 3 
nodeDisp 4 
nodeRotation 0 
nodeRotation 1 
nodeRotation 2 
nodeRotation 3 
nodeRotation 4 
analyze 1 
getTime  
nodeDisp 0 
nodeDisp 1 
nodeDisp 2 
nodeDisp 3 
nodeDisp 4 
nodeRotation 0 
nodeRotation 1 
nodeRotation 2 
nodeRotation 3 
nodeRotation 4 
analyze 1 
getTime  
nodeDisp 0 
nodeDisp 1 
nodeDisp 2 
nodeDisp 3 
nodeDisp 4 
nodeRotation 0 
nodeRotation 1 
nodeRotation 2 
nodeRotation 3 
nodeRotation 4 
analyze 1 
getTime  
nodeDisp 0 
nodeDisp 1 
nodeDisp 2 
nodeDisp 3 
nodeDisp 4 
nodeRotation 0 
nodeRotation 1 
nodeRotation 2 
nodeRotation 3 
nodeRotation 4 
analyze 1 
getTime  
nodeDisp 0 
nodeDisp 1 
nodeDisp 2 
nodeDisp 3 
nodeDisp 4 
nodeRotation 0 
nodeRotation 1 
nodeRotation 2 
nodeRotation 3 
nodeRotation 4 
analyze 1 
getTime  
nodeDisp 0 
nodeDisp 1 
nodeDisp 2 
nodeDisp 3 
nodeDisp 4 
nodeRotation 0 
nodeRotation 1 
nodeRotation 2 
nodeRotation 3 
nodeRotation 4 
analyze 1 
getTime  
nodeDisp 0 
nodeDisp 1 
nodeDisp 2 
nodeDisp 3 
nodeDisp 4 
nodeRotation 0 
nodeRotation 1 
nodeRotation 2 
nodeRotation 3 
nodeRotation 4 
analyze 1 
getTime  
nodeDisp 0 
nodeDisp 1 
nodeDisp 2 
nodeDisp 3 
nodeDisp 4 
nodeRotation 0 
nodeRotation 1 
nodeRotation 2 
nodeRotation 3 
nodeRotation 4 
analyze 1 
getTime  
nodeDisp 0 
nodeDisp 1 
nodeDisp 2 
nodeDisp 3 
nodeDisp 4 
nodeRotation 0 
nodeRotation 1 
nodeRotation 2 
nodeRotation 3 
nodeRotation 4 
analyze 1 
getTime  
nodeDisp 0 
nodeDisp 1 
nodeDisp 2 
nodeDisp 3 
nodeDisp 4 
nodeRotation 0 
nodeRotation 1 
nodeRotation 2 
nodeRotation 3 
nodeRotation 4 
analyze 1 
getTime  
nodeDisp 0 
nodeDisp 1 
nodeDisp 2 
nodeDisp 3 
nodeDisp 4 
nodeRotation 0 
nodeRotation 1 
nodeRotation 2 
nodeRotation 3 
nodeRotation 4 
analyze 1 
getTime  
nodeDisp 0 
nodeDisp 1 
nodeDisp 2 
nodeDisp 3 
nodeDisp 4 
nodeRotation 0 
nodeRotation 1 
nodeRotation 2 
nodeRotation 3 
nodeRotation 4 
analyze 1 
getTime  
nodeDisp 0 
nodeDisp 1 
nodeDisp 2 
nodeDisp 3 
nodeDisp 4 
nodeRotation 0 
nodeRotation 1 
nodeRotation 2 
nodeRotation 3 
nodeRotation 4 
