pragma openseespy
model  -ndm 3 -ndf 6
nDMaterial ElasticIsotropic 1 29000.0 0.2946428571428572 
section ShearFiber 1 -GJ 0
fiber  -area 0.0024582639885040777 -y -0.14561512300458365 -z -6.3829750736447375 -warp {{-0.9688128476231329 -6.786934454042615 -0.047486074018773625} {0 0.0 0}} -material 1 -section 1
fiber  -area 0.001968071740911675 -y 0.0858973084620515 -z -6.445011251646858 -warp {{0.5691715491462818 -6.638781698727345 -0.02527522541793185} {0 0.0 0}} -material 1 -section 1
fiber  -area 0.0026295055799975256 -y 0.2513534165830714 -z 6.449067492681132 -warp {{-1.6787270648522525 6.748091646753738 -0.21094775277559133} {0 0.0 0}} -material 1 -section 1
fiber  -area 0.002796604853338925 -y 0.1014594313673518 -z 6.425207602196014 -warp {{-0.6731775102372536 6.678373188779324 0.02267220428513255} {0 0.0 0}} -material 1 -section 1
fiber  -area 0.0022616072114781324 -y 0.1304274710890395 -z 6.220068233014909 -warp {{-0.8284796255571673 6.237688704920407 0.37569994110990784} {0 0.0 0}} -material 1 -section 1
fiber  -area 0.002487779349693777 -y -0.007698820096156869 -z 6.486116300436176 -warp {{0.05109670330448779 6.608789679217013 -0.006552612113394467} {0 0.0 0}} -material 1 -section 1
fiber  -area 0.002460525168736268 -y 0.006084256112897629 -z 6.3298594819992475 -warp {{-0.03978365591117713 6.519855409462664 -0.0004950376378034786} {0 0.0 0}} -material 1 -section 1
fiber  -area 0.0031467887616343357 -y -0.039403531190762286 -z -6.423441977149788 -warp {{-0.26068835997891665 -6.62029570624358 0.004775549540050155} {0 0.0 0}} -material 1 -section 1
fiber  -area 0.0017380861797066988 -y -0.08557062785976706 -z -0.13913505059366446 -warp {{-0.011877430758500415 -0.15014173930102162 -0.06360844248611518} {0 0.0 0}} -material 1 -section 1
fiber  -area 0.0015654750619104728 -y -0.12265660393775457 -z 0.0831423636570512 -warp {{0.01075214397092831 0.09076944080460801 -0.09014781582031524} {0 0.0 0}} -material 1 -section 1
fiber  -area 0.0023834684375634483 -y 0.2593506267351425 -z -6.453786116989534 -warp {{1.732382794945811 -6.78103709512013 -0.17351269995240579} {0 0.0 0}} -material 1 -section 1
fiber  -area 0.0019355233000958175 -y 0.13663742324540615 -z -6.290027468036063 -warp {{0.8932077714446164 -6.706854468908963 0.41895338687376843} {0 0.0 0}} -material 1 -section 1
fiber  -area 0.0014792241013295256 -y -2.0158380814716805 -z 6.653582883495797 -warp {{13.192050678407282 6.570078768550315 2.008684056401743} {0 0.0 0}} -material 1 -section 1
fiber  -area 0.0023669367796510807 -y -0.141628709058663 -z 6.406422074968462 -warp {{0.9423478174406649 6.742995280421459 0.02891537778427247} {0 0.0 0}} -material 1 -section 1
fiber  -area 0.0017539659194493545 -y 0.10229771528391646 -z 6.487791422499789 -warp {{-0.6772376412493261 6.645742892930177 -0.05197090489390766} {0 0.0 0}} -material 1 -section 1
fiber  -area 0.0025366865046284877 -y -0.28659657212960704 -z -6.551311061739646 -warp {{-1.8928968239646469 -6.620894940641458 0.22225152334358692} {0 0.0 0}} -material 1 -section 1
fiber  -area 0.0019815514143507193 -y -0.08578400989106238 -z 6.351877593794479 -warp {{0.5658468683294929 6.60209706211403 -0.08811794734435625} {0 0.0 0}} -material 1 -section 1
fiber  -area 0.0014530087929486317 -y 0.015114274840427261 -z 6.620543455969738 -warp {{-0.0983458382490987 6.508638256147268 -0.005888751647465324} {0 0.0 0}} -material 1 -section 1
fiber  -area 0.0015887492312902244 -y 0.028849544882921505 -z 6.350951673163934 -warp {{-0.18940283778023095 6.616021537206138 0.0411056797892842} {0 0.0 0}} -material 1 -section 1
fiber  -area 0.0017167749137016785 -y -0.0214970341591736 -z 6.343442172962598 -warp {{0.14097283300998362 6.59404767651295 -0.015319052584128004} {0 0.0 0}} -material 1 -section 1
# ... 6343 like lines cut

geomTransf Linear 1 0 0 1 
node 0 0.0 0 0 
node 1 55.2 0 0 

element ForceFrame 1 0 1 -section 1 -transform 1 -shear 1
fix 0 1 1 1 1 1 1 

pattern Plain 1 Linear {
  load 1 0 0 1 0 0 0 ;
}
integrator LoadControl 10 
analysis Static 
test Residual 1e-10 3 
analyze 1 
getNodeTags  
nodeDisp 1 3 
verify value [nodeDisp 1 3] 0.044376733692 1e-6
