#
# 3D 3-story frame
#
model Basic -ndm 3 -ndf 6
node 1 -120.0 120.0 0.0 
node 2 120.0 120.0 0.0 
node 3 120.0 -120.0 0.0 
node 4 -120.0 -120.0 0.0 
node 5 -120.0 120.0 144.0 
node 6 120.0 120.0 144.0 
node 7 120.0 -120.0 144.0 
node 8 -120.0 -120.0 144.0 
node 10 -120.0 120.0 288.0 
node 11 120.0 120.0 288.0 
node 12 120.0 -120.0 288.0 
node 13 -120.0 -120.0 288.0 
node 15 -120.0 120.0 432.0 
node 16 120.0 120.0 432.0 
node 17 120.0 -120.0 432.0 
node 18 -120.0 -120.0 432.0 
node 9 0.0 0.0 144.0 
node 14 0.0 0.0 288.0 
node 19 0.0 0.0 432.0 
fix 1 1 1 1 1 1 1 
fix 2 1 1 1 1 1 1 
fix 3 1 1 1 1 1 1 
fix 4 1 1 1 1 1 1 
fix 9 0 0 1 1 1 0 
fix 14 0 0 1 1 1 0 
fix 19 0 0 1 1 1 0 
rigidDiaphragm 3 9 5 6 7 8 
rigidDiaphragm 3 14 10 11 12 13 
rigidDiaphragm 3 19 15 16 17 18 
#
# Materials
#
uniaxialMaterial Concrete01 1 -5.0 -0.005 -3.5 -0.02 
uniaxialMaterial Concrete01 2 -4.0 -0.002 0.0 -0.006 
uniaxialMaterial Steel01 3 60.0 30000.0 0.02 
# Sections
section Fiber 1 -GJ 10000000000.0
patch quad 1 8 8 -6.5 6.5 -6.5 -6.5 6.5 -6.5 6.5 6.5 -section 1
patch quad 2 1 10 -9.0 9.0 -6.5 6.5 6.5 6.5 9.0 9.0 -section 1
patch quad 2 1 10 -6.5 -6.5 -9.0 -9.0 9.0 -9.0 6.5 -6.5 -section 1
patch quad 2 10 1 -9.0 9.0 -9.0 -9.0 -6.5 -6.5 -6.5 6.5 -section 1
patch quad 2 10 1 6.5 6.5 6.5 -6.5 9.0 -9.0 9.0 9.0 -section 1
layer straight 3 3 0.79 -6.5 6.5 -6.5 -6.5 -section 1
layer straight 3 3 0.79 6.5 6.5 6.5 -6.5 -section 1
layer straight 3 1 0.79 0.0 6.5 0.0 6.5 -section 1
layer straight 3 1 0.79 0.0 -6.5 0.0 -6.5 -section 1
section Elastic 2 3604.9965325919525 432.0 10368.0 5832.0 10000000000.0 1.0 

#
# Elements
#
geomTransf Linear 1 1.0 0.0 0.0 
beamIntegration Lobatto 1 1 4 
element forceBeamColumn  1  1  5 -transform 1 -section 1 -shear 0
element forceBeamColumn  2  2  6 -transform 1 -section 1 -shear 0
element forceBeamColumn  3  3  7 -transform 1 -section 1 -shear 0
element forceBeamColumn  4  4  8 -transform 1 -section 1 -shear 0
element forceBeamColumn  5  5 10 -transform 1 -section 1 -shear 0
element forceBeamColumn  6  6 11 -transform 1 -section 1 -shear 0
element forceBeamColumn  7  7 12 -transform 1 -section 1 -shear 0
element forceBeamColumn  8  8 13 -transform 1 -section 1 -shear 0
element forceBeamColumn  9 10 15 -transform 1 -section 1 -shear 0
element forceBeamColumn 10 11 16 -transform 1 -section 1 -shear 0
element forceBeamColumn 11 12 17 -transform 1 -section 1 -shear 0
element forceBeamColumn 12 13 18 -transform 1 -section 1 -shear 0
geomTransf Linear 2 1.0 1.0 0.0 
element forceBeamColumn 13  5 6 -transform 2 -section 2 -shear 0
element forceBeamColumn 14  6 7 -transform 2 -section 2 -shear 0
element forceBeamColumn 15  7 8 -transform 2 -section 2 -shear 0
element forceBeamColumn 16  8 5 -transform 2 -section 2 -shear 0
element forceBeamColumn 17 10 11 -transform 2 -section 2 -shear 0
element forceBeamColumn 18 11 12 -transform 2 -section 2 -shear 0
element forceBeamColumn 19 12 13 -transform 2 -section 2 -shear 0
element forceBeamColumn 20 13 10 -transform 2 -section 2 -shear 0
element forceBeamColumn 21 15 16 -transform 2 -section 2 -shear 0
element forceBeamColumn 22 16 17 -transform 2 -section 2 -shear 0
element forceBeamColumn 23 17 18 -transform 2 -section 2 -shear 0
element forceBeamColumn 24 18 15 -transform 2 -section 2 -shear 0
mass 9 1.3426970473322934 1.3426970473322934 0.0 0.0 0.0 12889.891654390018 
mass 14 1.3426970473322934 1.3426970473322934 0.0 0.0 0.0 12889.891654390018 
mass 19 1.3426970473322934 1.3426970473322934 0.0 0.0 0.0 12889.891654390018 
pattern Plain 1 Constant  {
  load  5 0.0 0.0 -129.6 0.0 0.0 0.0 -pattern 1 
  load  6 0.0 0.0 -129.6 0.0 0.0 0.0 -pattern 1 
  load  7 0.0 0.0 -129.6 0.0 0.0 0.0 -pattern 1 
  load  8 0.0 0.0 -129.6 0.0 0.0 0.0 -pattern 1 
  load 10 0.0 0.0 -129.6 0.0 0.0 0.0 -pattern 1 
  load 11 0.0 0.0 -129.6 0.0 0.0 0.0 -pattern 1 
  load 12 0.0 0.0 -129.6 0.0 0.0 0.0 -pattern 1 
  load 13 0.0 0.0 -129.6 0.0 0.0 0.0 -pattern 1 
  load 15 0.0 0.0 -129.6 0.0 0.0 0.0 -pattern 1 
  load 16 0.0 0.0 -129.6 0.0 0.0 0.0 -pattern 1 
  load 17 0.0 0.0 -129.6 0.0 0.0 0.0 -pattern 1 
  load 18 0.0 0.0 -129.6 0.0 0.0 0.0 -pattern 1 
}
rayleigh 0.0 0.0 0.0 0.0018 
timeSeries Path 2 -values {0.0 0.03141075907812829 0.06279051952931337 0.09410831331851431 0.12533323356430426 0.15643446504023087 0.1873813145857246 0.21814324139654256 0.2486898871648548 0.2789911060392293 0.3090169943749474 0.33873792024529137 0.3681245526846779 0.3971478906347806 0.4257792915650727 0.45399049973954675 0.4817536741017153 0.5090414157503713 0.5358267949789967 0.5620833778521306 
timeSeries Path 3 -values {0.0 0.10973431109104527 0.21814324139654254 0.32391741819814934 0.42577929156507266 0.5224985647159488 0.6129070536529764 0.6959127965923144 0.7705132427757891 0.8358073613682702 0.8910065241883678 0.9354440308298673 0.9685831611286311 0.9900236577165575 0.9995065603657316 0.996917333733128 0.9822872507286887 0.9557930147983301 0.9177546256839813 0.8686315144381912 0.809

pattern UniformExcitation 2 1 -accel 2
pattern UniformExcitation 3 2 -accel 3
system BandGen 
numberer RCM 

constraints Transformation 
test EnergyIncr 1e-14 20 
algorithm Newton 
integrator Newmark 0.5 0.25 
analysis Transient 
constraints Transformation 

eigen 4 
analyze 100 0.01 

