pragma openseespy
set Element PrismFrame
model  -ndm 3 -ndf 6
node 1 -100 0 0 
fix 1 -dof 2
fix 1 -dof 4
fix 1 -dof 6
node 2 -100 0 10 
fix 2 -dof 2
fix 2 -dof 4
fix 2 -dof 6
node 3 -100 0 20 
fix 3 -dof 2
fix 3 -dof 4
fix 3 -dof 6
node 4 -100 0 30 
fix 4 -dof 2
fix 4 -dof 4
fix 4 -dof 6
node 5 -100 0 40 
fix 5 -dof 2
fix 5 -dof 4
fix 5 -dof 6
node 6 -100 0 50 
fix 6 -dof 2
fix 6 -dof 4
fix 6 -dof 6
node 7 -100 0 60 
fix 7 -dof 2
fix 7 -dof 4
fix 7 -dof 6
node 8 -100 0 70 
fix 8 -dof 2
fix 8 -dof 4
fix 8 -dof 6
node 9 -100 0 80 
fix 9 -dof 2
fix 9 -dof 4
fix 9 -dof 6
node 10 -100 0 90 
fix 10 -dof 2
fix 10 -dof 4
fix 10 -dof 6
node 11 -80 0 0 
fix 11 -dof 2
fix 11 -dof 4
fix 11 -dof 6
node 12 -80 0 10 
fix 12 -dof 2
fix 12 -dof 4
fix 12 -dof 6
node 13 -80 0 20 
fix 13 -dof 2
fix 13 -dof 4
fix 13 -dof 6
node 14 -80 0 30 
fix 14 -dof 2
fix 14 -dof 4
fix 14 -dof 6
node 15 -80 0 40 
fix 15 -dof 2
fix 15 -dof 4
fix 15 -dof 6
node 16 -80 0 50 
fix 16 -dof 2
fix 16 -dof 4
fix 16 -dof 6
node 17 -80 0 60 
fix 17 -dof 2
fix 17 -dof 4
fix 17 -dof 6
node 18 -80 0 70 
fix 18 -dof 2
fix 18 -dof 4
fix 18 -dof 6
node 19 -80 0 80 
fix 19 -dof 2
fix 19 -dof 4
fix 19 -dof 6
node 20 -80 0 90 
fix 20 -dof 2
fix 20 -dof 4
fix 20 -dof 6
node 21 -60 0 0 
fix 21 -dof 2
fix 21 -dof 4
fix 21 -dof 6
node 22 -60 0 10 
fix 22 -dof 2
fix 22 -dof 4
fix 22 -dof 6
node 23 -60 0 20 
fix 23 -dof 2
fix 23 -dof 4
fix 23 -dof 6
node 24 -60 0 30 
fix 24 -dof 2
fix 24 -dof 4
fix 24 -dof 6
node 25 -60 0 40 
fix 25 -dof 2
fix 25 -dof 4
fix 25 -dof 6
node 26 -60 0 50 
fix 26 -dof 2
fix 26 -dof 4
fix 26 -dof 6
node 27 -60 0 60 
fix 27 -dof 2
fix 27 -dof 4
fix 27 -dof 6
node 28 -60 0 70 
fix 28 -dof 2
fix 28 -dof 4
fix 28 -dof 6
node 29 -60 0 80 
fix 29 -dof 2
fix 29 -dof 4
fix 29 -dof 6
node 30 -60 0 90 
fix 30 -dof 2
fix 30 -dof 4
fix 30 -dof 6
node 31 -40 0 0 
fix 31 -dof 2
fix 31 -dof 4
fix 31 -dof 6
node 32 -40 0 10 
fix 32 -dof 2
fix 32 -dof 4
fix 32 -dof 6
node 33 -40 0 20 
fix 33 -dof 2
fix 33 -dof 4
fix 33 -dof 6
node 34 -40 0 30 
fix 34 -dof 2
fix 34 -dof 4
fix 34 -dof 6
node 35 -40 0 40 
fix 35 -dof 2
fix 35 -dof 4
fix 35 -dof 6
node 36 -40 0 50 
fix 36 -dof 2
fix 36 -dof 4
fix 36 -dof 6
node 37 -40 0 60 
fix 37 -dof 2
fix 37 -dof 4
fix 37 -dof 6
node 38 -40 0 70 
fix 38 -dof 2
fix 38 -dof 4
fix 38 -dof 6
node 39 -40 0 80 
fix 39 -dof 2
fix 39 -dof 4
fix 39 -dof 6
node 40 -40 0 90 
fix 40 -dof 2
fix 40 -dof 4
fix 40 -dof 6
node 41 -20 0 0 
fix 41 -dof 2
fix 41 -dof 4
fix 41 -dof 6
node 42 -20 0 10 
fix 42 -dof 2
fix 42 -dof 4
fix 42 -dof 6
node 43 -20 0 20 
fix 43 -dof 2
fix 43 -dof 4
fix 43 -dof 6
node 44 -20 0 30 
fix 44 -dof 2
fix 44 -dof 4
fix 44 -dof 6
node 45 -20 0 40 
fix 45 -dof 2
fix 45 -dof 4
fix 45 -dof 6
node 46 -20 0 50 
fix 46 -dof 2
fix 46 -dof 4
fix 46 -dof 6
node 47 -20 0 60 
fix 47 -dof 2
fix 47 -dof 4
fix 47 -dof 6
node 48 -20 0 70 
fix 48 -dof 2
fix 48 -dof 4
fix 48 -dof 6
node 49 -20 0 80 
fix 49 -dof 2
fix 49 -dof 4
fix 49 -dof 6
node 50 -20 0 90 
fix 50 -dof 2
fix 50 -dof 4
fix 50 -dof 6
node 51 0 0 0 
fix 51 -dof 2
fix 51 -dof 4
fix 51 -dof 6
node 52 0 0 10 
fix 52 -dof 2
fix 52 -dof 4
fix 52 -dof 6
node 53 0 0 20 
fix 53 -dof 2
fix 53 -dof 4
fix 53 -dof 6
node 54 0 0 30 
fix 54 -dof 2
fix 54 -dof 4
fix 54 -dof 6
node 55 0 0 40 
fix 55 -dof 2
fix 55 -dof 4
fix 55 -dof 6
node 56 0 0 50 
fix 56 -dof 2
fix 56 -dof 4
fix 56 -dof 6
node 57 0 0 60 
fix 57 -dof 2
fix 57 -dof 4
fix 57 -dof 6
node 58 0 0 70 
fix 58 -dof 2
fix 58 -dof 4
fix 58 -dof 6
node 59 0 0 80 
fix 59 -dof 2
fix 59 -dof 4
fix 59 -dof 6
node 60 0 0 90 
fix 60 -dof 2
fix 60 -dof 4
fix 60 -dof 6
node 61 20 0 0 
fix 61 -dof 2
fix 61 -dof 4
fix 61 -dof 6
node 62 20 0 10 
fix 62 -dof 2
fix 62 -dof 4
fix 62 -dof 6
node 63 20 0 20 
fix 63 -dof 2
fix 63 -dof 4
fix 63 -dof 6
node 64 20 0 30 
fix 64 -dof 2
fix 64 -dof 4
fix 64 -dof 6
node 65 20 0 40 
fix 65 -dof 2
fix 65 -dof 4
fix 65 -dof 6
node 66 20 0 50 
fix 66 -dof 2
fix 66 -dof 4
fix 66 -dof 6
node 67 20 0 60 
fix 67 -dof 2
fix 67 -dof 4
fix 67 -dof 6
node 68 20 0 70 
fix 68 -dof 2
fix 68 -dof 4
fix 68 -dof 6
node 69 20 0 80 
fix 69 -dof 2
fix 69 -dof 4
fix 69 -dof 6
node 70 20 0 90 
fix 70 -dof 2
fix 70 -dof 4
fix 70 -dof 6
node 71 40 0 0 
fix 71 -dof 2
fix 71 -dof 4
fix 71 -dof 6
node 72 40 0 10 
fix 72 -dof 2
fix 72 -dof 4
fix 72 -dof 6
node 73 40 0 20 
fix 73 -dof 2
fix 73 -dof 4
fix 73 -dof 6
node 74 40 0 30 
fix 74 -dof 2
fix 74 -dof 4
fix 74 -dof 6
node 75 40 0 40 
fix 75 -dof 2
fix 75 -dof 4
fix 75 -dof 6
node 76 40 0 50 
fix 76 -dof 2
fix 76 -dof 4
fix 76 -dof 6
node 77 40 0 60 
fix 77 -dof 2
fix 77 -dof 4
fix 77 -dof 6
node 78 40 0 70 
fix 78 -dof 2
fix 78 -dof 4
fix 78 -dof 6
node 79 40 0 80 
fix 79 -dof 2
fix 79 -dof 4
fix 79 -dof 6
node 80 40 0 90 
fix 80 -dof 2
fix 80 -dof 4
fix 80 -dof 6
node 81 60 0 0 
fix 81 -dof 2
fix 81 -dof 4
fix 81 -dof 6
node 82 60 0 10 
fix 82 -dof 2
fix 82 -dof 4
fix 82 -dof 6
node 83 60 0 20 
fix 83 -dof 2
fix 83 -dof 4
fix 83 -dof 6
node 84 60 0 30 
fix 84 -dof 2
fix 84 -dof 4
fix 84 -dof 6
node 85 60 0 40 
fix 85 -dof 2
fix 85 -dof 4
fix 85 -dof 6
node 86 60 0 50 
fix 86 -dof 2
fix 86 -dof 4
fix 86 -dof 6
node 87 60 0 60 
fix 87 -dof 2
fix 87 -dof 4
fix 87 -dof 6
node 88 60 0 70 
fix 88 -dof 2
fix 88 -dof 4
fix 88 -dof 6
node 89 60 0 80 
fix 89 -dof 2
fix 89 -dof 4
fix 89 -dof 6
node 90 60 0 90 
fix 90 -dof 2
fix 90 -dof 4
fix 90 -dof 6
node 91 80 0 0 
fix 91 -dof 2
fix 91 -dof 4
fix 91 -dof 6
node 92 80 0 10 
fix 92 -dof 2
fix 92 -dof 4
fix 92 -dof 6
node 93 80 0 20 
fix 93 -dof 2
fix 93 -dof 4
fix 93 -dof 6
node 94 80 0 30 
fix 94 -dof 2
fix 94 -dof 4
fix 94 -dof 6
node 95 80 0 40 
fix 95 -dof 2
fix 95 -dof 4
fix 95 -dof 6
node 96 80 0 50 
fix 96 -dof 2
fix 96 -dof 4
fix 96 -dof 6
node 97 80 0 60 
fix 97 -dof 2
fix 97 -dof 4
fix 97 -dof 6
node 98 80 0 70 
fix 98 -dof 2
fix 98 -dof 4
fix 98 -dof 6
node 99 80 0 80 
fix 99 -dof 2
fix 99 -dof 4
fix 99 -dof 6
node 100 80 0 90 
fix 100 -dof 2
fix 100 -dof 4
fix 100 -dof 6
node 101 100 0 0 
fix 101 -dof 2
fix 101 -dof 4
fix 101 -dof 6
node 102 100 0 10 
fix 102 -dof 2
fix 102 -dof 4
fix 102 -dof 6
node 103 100 0 20 
fix 103 -dof 2
fix 103 -dof 4
fix 103 -dof 6
node 104 100 0 30 
fix 104 -dof 2
fix 104 -dof 4
fix 104 -dof 6
node 105 100 0 40 
fix 105 -dof 2
fix 105 -dof 4
fix 105 -dof 6
node 106 100 0 50 
fix 106 -dof 2
fix 106 -dof 4
fix 106 -dof 6
node 107 100 0 60 
fix 107 -dof 2
fix 107 -dof 4
fix 107 -dof 6
node 108 100 0 70 
fix 108 -dof 2
fix 108 -dof 4
fix 108 -dof 6
node 109 100 0 80 
fix 109 -dof 2
fix 109 -dof 4
fix 109 -dof 6
node 110 100 0 90 
fix 110 -dof 2
fix 110 -dof 4
fix 110 -dof 6
fix  1 1 0 1 0 1 0 
fix 11 1 0 1 0 1 0 
fix 21 1 0 1 0 1 0 
fix 31 1 0 1 0 1 0 
fix 41 1 0 1 0 1 0 
fix 51 1 0 1 0 1 0 
fix 61 1 0 1 0 1 0 
fix 71 1 0 1 0 1 0 
fix 81 1 0 1 0 1 0 
fix 91 1 0 1 0 1 0 
fix 101 1 0 1 0 1 0 
nDMaterial ElasticIsotropic 1 432000 0.2 
nDMaterial ElasticIsotropic 2 518400 0.2 
section FrameElastic 1 -A 3 -Ay 0 -Az 0 -Iz 1 -Iy 0 -J 1 -E 432000 -G 180000

geomTransf Linear  1 0.0 1.0 0.0 
geomTransf Linear  2 0.0 1.0 0.0 
geomTransf Linear  3 0.0 1.0 0.0 
geomTransf Linear 10 0.0 1.0 0.0 
geomTransf Linear 11 0.0 1.0 0.0 
geomTransf Linear 12 0.0 1.0 0.0 
geomTransf Linear 13 0.0 1.0 0.0 
geomTransf Linear 100 0.0 -1.0 -0.0 
geomTransf Linear 101 0.0 -1.0 -0.0 
geomTransf Linear 102 0.0 -1.0 -0.0 
geomTransf Linear 103 0.0 -1.0 -0.0 
geomTransf Linear 104 0.0 -1.0 -0.0 
geomTransf Linear 105 0.0 -1.0 -0.0 
geomTransf Linear 106 0.0 -1.0 -0.0 
geomTransf Linear 107 0.0 -1.0 -0.0 
geomTransf Linear 108 0.0 -1.0 -0.0 
geomTransf Linear 109 0.0 -1.0 -0.0 
geomTransf Linear 110 0.0 -1.0 -0.0 
geomTransf Linear 111 0.0 -1.0 -0.0 
geomTransf Linear 112 0.0 -1.0 -0.0 
# ... 169 like lines cut

element $Element  1  1  2 -section 1 -transform 1 -mass 3 -shear 0
element $Element  2  2  3 -section 1 -transform 1 -mass 3 -shear 0
element $Element  3  3  4 -section 1 -transform 3 -mass 3 -shear 0
element $Element 10 11 12 -section 1 -transform 10 -mass 3 -shear 0
element $Element 100 2 12 -section 1 -transform 100 -mass 3 -shear 0
element $Element 101 3 13 -section 1 -transform 101 -mass 3 -shear 0
element $Element 102 4 14 -section 1 -transform 102 -mass 3 -shear 0
element $Element 103 5 15 -section 1 -transform 103 -mass 3 -shear 0
element $Element 104 6 16 -section 1 -transform 104 -mass 3 -shear 0
element $Element 105 7 17 -section 1 -transform 105 -mass 3 -shear 0
element $Element 106 8 18 -section 1 -transform 106 -mass 3 -shear 0
element $Element 107 9 19 -section 1 -transform 107 -mass 3 -shear 0
element $Element 108 10 20 -section 1 -transform 108 -mass 3 -shear 0
element $Element 109 12 22 -section 1 -transform 109 -mass 3 -shear 0
element $Element 11 12 13 -section 1 -transform 11 -mass 3 -shear 0
element $Element 110 13 23 -section 1 -transform 110 -mass 3 -shear 0
element $Element 111 14 24 -section 1 -transform 111 -mass 3 -shear 0
element $Element 112 15 25 -section 1 -transform 112 -mass 3 -shear 0
element $Element 113 16 26 -section 1 -transform 113 -mass 3 -shear 0
element $Element 114 17 27 -section 1 -transform 114 -mass 3 -shear 0
# ... 169 like lines cut

#
# Analysis
#
constraints Transformation 
set lambdas [eigen 3 -bandGenArpack]

set references {0.589541 5.52695 16.5878}

foreach lambda $lambdas reference $references {

  verify value $lambda $reference 1e-4
}

