model basic -ndm 1 -ndf 1 
node 1 0.0 
node 2 0.0 -mass 0.20264236728467555 
uniaxialMaterial Elastic 1 2.0 
element zeroLength 1 1 2 -mat 1 -dir 1 
fix 1 1 
rayleigh 0.3141592653589793 0.0 0.0 0.0 

# El Centro acceleration time series
timeSeries Path 1 -dt 0.02 -factor 386.4  -values {
  6.300000000000000044e-03 3.640000000000000006e-03 9.899999999999999946e-04 4.279999999999999950e-03 7.579999999999999932e-03 1.086999999999999945e-02 6.819999999999999674e-03 2.769999999999999893e-03 -1.280000000000000105e-03 3.680000000000000111e-03 8.640000000000000110e-03 1.359999999999999924e-02 7.270000000000000420e-03 9.399999999999999719e-04 4.199999999999999740e-03 2.210000000000000159e-
}
pattern UniformExcitation 1 1 -accel 1 

constraints Plain 
numberer Plain 
algorithm Linear 
integrator Newmark 0.5 0.16666666666666666 
system ProfileSPD 
analysis Transient 

analyze 1559 0.02 

nodeDisp 2 1 
